<?xml version="1.0" encoding="UTF-8"?>

<!-- generated on 2022-12-03 15:56:51 by Eclipse SUMO netconvert Version 1.14.1
<configuration xmlns:xsi="http://www.w3.org/2001/XMLSchema-instance" xsi:noNamespaceSchemaLocation="http://sumo.dlr.de/xsd/netconvertConfiguration.xsd">

    <input>
        <opendrive-files value="ring_2.xodr"/>
    </input>

    <output>
        <output-file value="ring_2.net.xml"/>
    </output>

</configuration>
-->

<net version="1.9" junctionCornerDetail="5" rectangularLaneCut="true" limitTurnSpeed="5.50" xmlns:xsi="http://www.w3.org/2001/XMLSchema-instance" xsi:noNamespaceSchemaLocation="http://sumo.dlr.de/xsd/net_file.xsd">

    <location netOffset="99.99,99.99" convBoundary="0.00,0.00,200.00,200.00" origBoundary="-127.12,-99.99,100.01,100.01" projParameter="!"/>

    <type id="bidirectional" priority="1" speed="1.39" disallow="pedestrian tram rail_urban rail rail_electric rail_fast ship" width="3.65"/>
    <type id="border" priority="0" speed="1.39" disallow="all" discard="1" width="0.10"/>
    <type id="driving" priority="1" speed="13.89" disallow="pedestrian tram rail_urban rail rail_electric rail_fast ship" width="3.65"/>
    <type id="entry" priority="1" speed="22.22" disallow="pedestrian tram rail_urban rail rail_electric rail_fast ship" width="3.65"/>
    <type id="exit" priority="1" speed="22.22" disallow="pedestrian tram rail_urban rail rail_electric rail_fast ship" width="3.65"/>
    <type id="median" priority="0" speed="1.39" disallow="all" discard="1" width="0.10"/>
    <type id="mwyEntry" priority="1" speed="22.22" allow="private emergency authority army vip passenger hov taxi bus coach delivery truck trailer motorcycle evehicle custom1 custom2" width="3.65"/>
    <type id="mwyExit" priority="1" speed="22.22" allow="private emergency authority army vip passenger hov taxi bus coach delivery truck trailer motorcycle evehicle custom1 custom2" width="3.65"/>
    <type id="none" priority="0" speed="1.39" disallow="all" discard="1" width="1.00"/>
    <type id="offRamp" priority="1" speed="22.22" allow="private emergency authority army vip passenger hov taxi bus coach delivery truck trailer motorcycle evehicle custom1 custom2" width="3.65"/>
    <type id="onRamp" priority="1" speed="22.22" allow="private emergency authority army vip passenger hov taxi bus coach delivery truck trailer motorcycle evehicle custom1 custom2" width="3.65"/>
    <type id="parking" priority="1" speed="1.39" disallow="pedestrian tram rail_urban rail rail_electric rail_fast ship" width="2.50"/>
    <type id="rail" priority="3" speed="33.33" allow="rail_urban rail rail_electric rail_fast" width="3.65"/>
    <type id="restricted" priority="0" speed="13.89" disallow="all" width="3.65"/>
    <type id="roadWorks" priority="0" speed="1.39" allow="authority" width="3.65"/>
    <type id="shoulder" priority="0" speed="1.39" disallow="all" discard="1" width="1.00"/>
    <type id="special1" priority="1" speed="22.22" allow="custom1" discard="1" width="3.65"/>
    <type id="special2" priority="1" speed="22.22" allow="custom2" discard="1" width="3.65"/>
    <type id="special3" priority="1" speed="22.22" allow="custom1 custom2" discard="1" width="3.65"/>
    <type id="stop" priority="1" speed="13.89" disallow="pedestrian tram rail_urban rail rail_electric rail_fast ship" width="3.65"/>
    <type id="tram" priority="2" speed="13.89" allow="tram" width="3.65"/>

    <edge id=":1.0_0" function="internal">
        <lane id=":1.0_0_0" index="0" disallow="pedestrian tram rail_urban rail rail_electric rail_fast ship" speed="17.88" length="0.29" width="4.00" shape="99.85,-2.00 100.14,-2.00"/>
    </edge>
    <edge id=":2.1_0" function="internal">
        <lane id=":2.1_0_0" index="0" disallow="pedestrian tram rail_urban rail rail_electric rail_fast ship" speed="17.88" length="0.29" width="4.00" shape="202.00,99.85 202.00,100.14"/>
    </edge>
    <edge id=":3.0_0" function="internal">
        <lane id=":3.0_0_0" index="0" disallow="pedestrian tram rail_urban rail rail_electric rail_fast ship" speed="17.88" length="0.29" width="4.00" shape="-2.00,100.15 -2.00,99.86"/>
    </edge>
    <edge id=":3.2_0" function="internal">
        <lane id=":3.2_0_0" index="0" disallow="pedestrian tram rail_urban rail rail_electric rail_fast ship" speed="17.88" length="0.29" width="4.00" shape="100.15,202.00 99.86,202.00"/>
    </edge>

    <edge id="-0" from="3.0" to="1.0" priority="1" type="driving" shape="0.00,100.01 0.02,98.01 0.08,96.01 0.18,94.01 0.32,92.02 0.50,90.03 0.72,88.04 0.98,86.06 1.28,84.08 1.61,82.11 1.99,80.14 2.41,78.19 2.86,76.24 3.36,74.30 3.89,72.37 4.46,70.46 5.07,68.55 5.72,66.66 6.41,64.78 7.13,62.92 7.89,61.07 8.69,59.23 9.52,57.42 10.39,55.61 11.30,53.83 12.24,52.07 13.21,50.32 14.22,48.59 15.27,46.89 16.35,45.21 17.46,43.54 18.61,41.90 19.78,40.29 20.99,38.70 22.24,37.13 23.51,35.59 24.81,34.07 26.15,32.58 27.51,31.12 28.90,29.68 30.32,28.27 31.77,26.89 33.25,25.54 34.75,24.22 36.28,22.93 37.83,21.67 39.41,20.45 41.01,19.25 42.64,18.09 44.29,16.96 45.96,15.86 47.65,14.79 49.37,13.76 51.10,12.77 52.86,11.81 54.63,10.88 56.42,9.99 58.23,9.14 60.06,8.32 61.90,7.54 63.75,6.80 65.63,6.09 67.51,5.42 69.41,4.79 71.32,4.20 73.24,3.65 75.17,3.13 77.11,2.65 79.07,2.22 81.03,1.82 82.99,1.46 84.97,1.14 86.95,0.86 88.93,0.61 90.92,0.41 92.92,0.25 94.91,0.13 96.91,0.05 98.91,0.01 99.99,0.00">
        <lane id="-0_0" index="0" disallow="pedestrian tram rail_urban rail rail_electric rail_fast ship" speed="17.88" length="159.93" width="4.00" shape="-2.00,99.86 -1.98,97.97 -1.92,95.93 -1.82,93.89 -1.67,91.86 -1.49,89.83 -1.27,87.80 -1.00,85.78 -0.70,83.76 -0.35,81.75 0.03,79.75 0.46,77.75 0.92,75.76 1.43,73.79 1.97,71.82 2.55,69.87 3.17,67.92 3.84,65.99 4.53,64.08 5.27,62.18 6.05,60.29 6.86,58.42 7.71,56.56 8.60,54.73 9.52,52.91 10.48,51.11 11.48,49.33 12.51,47.57 13.57,45.83 14.68,44.11 15.81,42.41 16.98,40.74 18.18,39.09 19.41,37.47 20.68,35.87 21.98,34.30 23.31,32.75 24.67,31.23 26.06,29.74 27.48,28.27 28.93,26.84 30.41,25.43 31.91,24.05 33.44,22.71 35.00,21.39 36.59,20.11 38.20,18.85 39.83,17.64 41.49,16.45 43.18,15.29 44.88,14.18 46.61,13.09 48.36,12.04 50.13,11.02 51.92,10.05 53.72,9.10 55.55,8.19 57.40,7.32 59.26,6.49 61.14,5.69 63.03,4.94 64.94,4.22 66.86,3.53 68.80,2.89 70.75,2.29 72.71,1.72 74.68,1.19 76.66,0.71 78.65,0.26 80.65,-0.15 82.65,-0.51 84.67,-0.84 86.69,-1.13 88.71,-1.37 90.74,-1.58 92.77,-1.74 94.81,-1.87 96.85,-1.95 98.88,-1.99 99.85,-2.00" type="driving"/>
    </edge>
    <edge id="-1" from="1.0" to="2.1" priority="1" type="driving" shape="99.99,0.00 101.99,0.02 103.99,0.08 105.99,0.18 107.98,0.32 109.97,0.50 111.96,0.72 113.94,0.98 115.92,1.28 117.89,1.61 119.86,1.99 121.81,2.41 123.76,2.86 125.70,3.36 127.63,3.89 129.54,4.46 131.45,5.07 133.34,5.72 135.22,6.41 137.08,7.13 138.93,7.89 140.77,8.69 142.58,9.52 144.39,10.39 146.17,11.30 147.93,12.24 149.68,13.21 151.41,14.22 153.11,15.27 154.79,16.35 156.46,17.46 158.10,18.61 159.71,19.78 161.30,20.99 162.87,22.24 164.41,23.51 165.93,24.81 167.42,26.15 168.88,27.51 170.32,28.90 171.73,30.32 173.11,31.77 174.46,33.25 175.78,34.75 177.07,36.28 178.33,37.83 179.55,39.41 180.75,41.01 181.91,42.64 183.04,44.29 184.14,45.96 185.21,47.65 186.24,49.37 187.23,51.10 188.19,52.86 189.12,54.63 190.01,56.42 190.86,58.23 191.68,60.06 192.46,61.90 193.20,63.75 193.91,65.63 194.58,67.51 195.21,69.41 195.80,71.32 196.35,73.24 196.87,75.17 197.35,77.11 197.78,79.07 198.18,81.03 198.54,82.99 198.86,84.97 199.14,86.95 199.39,88.93 199.59,90.92 199.75,92.92 199.87,94.91 199.95,96.91 199.99,98.91 200.00,99.99">
        <lane id="-1_0" index="0" disallow="pedestrian tram rail_urban rail rail_electric rail_fast ship" speed="17.88" length="159.93" width="4.00" shape="100.14,-2.00 102.03,-1.98 104.07,-1.92 106.11,-1.82 108.14,-1.67 110.17,-1.49 112.20,-1.27 114.22,-1.00 116.24,-0.70 118.25,-0.35 120.25,0.03 122.25,0.46 124.24,0.92 126.21,1.43 128.18,1.97 130.13,2.55 132.08,3.17 134.01,3.84 135.92,4.53 137.82,5.27 139.71,6.05 141.58,6.86 143.44,7.71 145.27,8.60 147.09,9.52 148.89,10.48 150.67,11.48 152.43,12.51 154.17,13.57 155.89,14.68 157.59,15.81 159.26,16.98 160.91,18.18 162.53,19.41 164.13,20.68 165.70,21.98 167.25,23.31 168.77,24.67 170.26,26.06 171.73,27.48 173.16,28.93 174.57,30.41 175.95,31.91 177.29,33.44 178.61,35.00 179.89,36.59 181.15,38.20 182.36,39.83 183.55,41.49 184.71,43.18 185.82,44.88 186.91,46.61 187.96,48.36 188.98,50.13 189.95,51.92 190.90,53.72 191.81,55.55 192.68,57.40 193.51,59.26 194.31,61.14 195.06,63.03 195.78,64.94 196.47,66.86 197.11,68.80 197.71,70.75 198.28,72.71 198.81,74.68 199.29,76.66 199.74,78.65 200.15,80.65 200.51,82.65 200.84,84.67 201.13,86.69 201.37,88.71 201.58,90.74 201.74,92.77 201.87,94.81 201.95,96.85 201.99,98.88 202.00,99.85" type="driving"/>
    </edge>
    <edge id="-2" from="2.1" to="3.2" priority="1" type="driving" shape="200.00,99.99 199.98,101.99 199.92,103.99 199.82,105.99 199.68,107.98 199.50,109.97 199.28,111.96 199.02,113.94 198.72,115.92 198.39,117.89 198.01,119.86 197.59,121.81 197.14,123.76 196.64,125.70 196.11,127.63 195.54,129.54 194.93,131.45 194.28,133.34 193.59,135.22 192.87,137.08 192.11,138.93 191.31,140.77 190.48,142.58 189.61,144.39 188.70,146.17 187.76,147.93 186.79,149.68 185.78,151.41 184.73,153.11 183.65,154.79 182.54,156.46 181.39,158.10 180.22,159.71 179.01,161.30 177.76,162.87 176.49,164.41 175.19,165.93 173.85,167.42 172.49,168.88 171.10,170.32 169.68,171.73 168.23,173.11 166.75,174.46 165.25,175.78 163.72,177.07 162.17,178.33 160.59,179.55 158.99,180.75 157.36,181.91 155.71,183.04 154.04,184.14 152.35,185.21 150.63,186.24 148.90,187.23 147.14,188.19 145.37,189.12 143.58,190.01 141.77,190.86 139.94,191.68 138.10,192.46 136.25,193.20 134.37,193.91 132.49,194.58 130.59,195.21 128.68,195.80 126.76,196.35 124.83,196.87 122.89,197.35 120.93,197.78 118.97,198.18 117.01,198.54 115.03,198.86 113.05,199.14 111.07,199.39 109.08,199.59 107.08,199.75 105.09,199.87 103.09,199.95 101.09,199.99 100.01,200.00">
        <lane id="-2_0" index="0" disallow="pedestrian tram rail_urban rail rail_electric rail_fast ship" speed="17.88" length="159.93" width="4.00" shape="202.00,100.14 201.98,102.03 201.92,104.07 201.82,106.11 201.67,108.14 201.49,110.17 201.27,112.20 201.00,114.22 200.70,116.24 200.35,118.25 199.97,120.25 199.54,122.25 199.08,124.24 198.57,126.21 198.03,128.18 197.45,130.13 196.83,132.08 196.16,134.01 195.47,135.92 194.73,137.82 193.95,139.71 193.14,141.58 192.29,143.44 191.40,145.27 190.48,147.09 189.52,148.89 188.52,150.67 187.49,152.43 186.43,154.17 185.32,155.89 184.19,157.59 183.02,159.26 181.82,160.91 180.59,162.53 179.32,164.13 178.02,165.70 176.69,167.25 175.33,168.77 173.94,170.26 172.52,171.73 171.07,173.16 169.59,174.57 168.09,175.95 166.56,177.29 165.00,178.61 163.41,179.89 161.80,181.15 160.17,182.36 158.51,183.55 156.82,184.71 155.12,185.82 153.39,186.91 151.64,187.96 149.87,188.98 148.08,189.95 146.28,190.90 144.45,191.81 142.60,192.68 140.74,193.51 138.86,194.31 136.97,195.06 135.06,195.78 133.14,196.47 131.20,197.11 129.25,197.71 127.29,198.28 125.32,198.81 123.34,199.29 121.35,199.74 119.35,200.15 117.35,200.51 115.33,200.84 113.31,201.13 111.29,201.37 109.26,201.58 107.23,201.74 105.19,201.87 103.15,201.95 101.12,201.99 100.15,202.00" type="driving"/>
    </edge>
    <edge id="-3" from="3.2" to="3.0" priority="1" type="driving" shape="100.01,200.00 98.01,199.98 96.01,199.92 94.01,199.82 92.02,199.68 90.03,199.50 88.04,199.28 86.06,199.02 84.08,198.72 82.11,198.39 80.14,198.01 78.19,197.59 76.24,197.14 74.30,196.64 72.37,196.11 70.46,195.54 68.55,194.93 66.66,194.28 64.78,193.59 62.92,192.87 61.07,192.11 59.23,191.31 57.42,190.48 55.61,189.61 53.83,188.70 52.07,187.76 50.32,186.79 48.59,185.78 46.89,184.73 45.21,183.65 43.54,182.54 41.90,181.39 40.29,180.22 38.70,179.01 37.13,177.76 35.59,176.49 34.07,175.19 32.58,173.85 31.12,172.49 29.68,171.10 28.27,169.68 26.89,168.23 25.54,166.75 24.22,165.25 22.93,163.72 21.67,162.17 20.45,160.59 19.25,158.99 18.09,157.36 16.96,155.71 15.86,154.04 14.79,152.35 13.76,150.63 12.77,148.90 11.81,147.14 10.88,145.37 9.99,143.58 9.14,141.77 8.32,139.94 7.54,138.10 6.80,136.25 6.09,134.37 5.42,132.49 4.79,130.59 4.20,128.68 3.65,126.76 3.13,124.83 2.65,122.89 2.22,120.93 1.82,118.97 1.46,117.01 1.14,115.03 0.86,113.05 0.61,111.07 0.41,109.08 0.25,107.08 0.13,105.09 0.05,103.09 0.01,101.09 0.00,100.01">
        <lane id="-3_0" index="0" disallow="pedestrian tram rail_urban rail rail_electric rail_fast ship" speed="17.88" length="159.93" width="4.00" shape="99.86,202.00 97.97,201.98 95.93,201.92 93.89,201.82 91.86,201.67 89.83,201.49 87.80,201.27 85.78,201.00 83.76,200.70 81.75,200.35 79.75,199.97 77.75,199.54 75.76,199.08 73.79,198.57 71.82,198.03 69.87,197.45 67.92,196.83 65.99,196.16 64.08,195.47 62.18,194.73 60.29,193.95 58.42,193.14 56.56,192.29 54.73,191.40 52.91,190.48 51.11,189.52 49.33,188.52 47.57,187.49 45.83,186.43 44.11,185.32 42.41,184.19 40.74,183.02 39.09,181.82 37.47,180.59 35.87,179.32 34.30,178.02 32.75,176.69 31.23,175.33 29.74,173.94 28.27,172.52 26.84,171.07 25.43,169.59 24.05,168.09 22.71,166.56 21.39,165.00 20.11,163.41 18.85,161.80 17.64,160.17 16.45,158.51 15.29,156.82 14.18,155.12 13.09,153.39 12.04,151.64 11.02,149.87 10.05,148.08 9.10,146.28 8.19,144.45 7.32,142.60 6.49,140.74 5.69,138.86 4.94,136.97 4.22,135.06 3.53,133.14 2.89,131.20 2.29,129.25 1.72,127.29 1.19,125.32 0.71,123.34 0.26,121.35 -0.15,119.35 -0.51,117.35 -0.84,115.33 -1.13,113.31 -1.37,111.29 -1.58,109.26 -1.74,107.23 -1.87,105.19 -1.95,103.15 -1.99,101.12 -2.00,100.15" type="driving"/>
    </edge>

    <junction id="1.0" type="priority" x="99.99" y="0.00" incLanes="-0_0" intLanes=":1.0_0_0" shape="100.12,0.00 100.16,-4.00 99.84,-4.00 99.86,0.00">
        <request index="0" response="0" foes="0" cont="0"/>
    </junction>
    <junction id="2.1" type="priority" x="200.00" y="99.99" incLanes="-1_0" intLanes=":2.1_0_0" shape="204.00,99.84 200.00,99.86 200.00,100.12 204.00,100.16">
        <request index="0" response="0" foes="0" cont="0"/>
    </junction>
    <junction id="3.0" type="priority" x="0.00" y="100.01" incLanes="-3_0" intLanes=":3.0_0_0" shape="-4.00,100.16 0.00,100.14 0.00,99.88 -4.00,99.84">
        <request index="0" response="0" foes="0" cont="0"/>
    </junction>
    <junction id="3.2" type="priority" x="100.01" y="200.00" incLanes="-2_0" intLanes=":3.2_0_0" shape="100.16,204.00 100.14,200.00 99.88,200.00 99.84,204.00">
        <request index="0" response="0" foes="0" cont="0"/>
    </junction>

    <connection from="-0" to="-1" fromLane="0" toLane="0" via=":1.0_0_0" dir="s" state="M"/>
    <connection from="-1" to="-2" fromLane="0" toLane="0" via=":2.1_0_0" dir="s" state="M"/>
    <connection from="-2" to="-3" fromLane="0" toLane="0" via=":3.2_0_0" dir="s" state="M"/>
    <connection from="-3" to="-0" fromLane="0" toLane="0" via=":3.0_0_0" dir="s" state="M"/>

    <connection from=":1.0_0" to="-1" fromLane="0" toLane="0" dir="s" state="M"/>
    <connection from=":2.1_0" to="-2" fromLane="0" toLane="0" dir="s" state="M"/>
    <connection from=":3.0_0" to="-0" fromLane="0" toLane="0" dir="s" state="M"/>
    <connection from=":3.2_0" to="-3" fromLane="0" toLane="0" dir="s" state="M"/>

</net>
